myETL/UCT_Source/20221102_1230_FO3_TR0.uct
##C 2007.05.01

Created by Merlin Conversion and Merge Utility v1.7.1 on Tuesday, November 01, 2022  17:45 from file

20221102_1230_FO3_TR0.raw


##N
##ZXX
XMI_HA11              1 0 418.59  -113.1   -38.5     0.0    -0.0
XMI_HA12              1 0 417.49  -140.6   -43.6     0.0    -0.0
XNS_BA11              1 0 419.23   224.0  -136.6     0.0    -0.0
##ZTR
T3KALE31              0 2 161.08     0.0     0.0   -10.9    -0.0    -0.0   -27.5     0.0     0.0               190.506 14.2857
T3KALE32              0 0 154.00     0.0     0.0     0.0    -0.0
TABRES31              0 0 162.47     0.0     0.0     0.0    -0.0
TABRES32              0 0 154.00     0.0     0.0     0.0    -0.0
TACARS31              0 2 161.69     0.0     0.0   -13.1    -0.0     0.0   -15.5     4.3    -8.1                92.136 14.2857
TACARS32              0 0 154.00     0.0     0.0     0.0    -0.0
TACIDE31              0 0 161.58     7.8     0.9     0.0    -0.0
TACIDE32              0 0 154.00     0.0     0.0     0.0    -0.0
TACIPA31              0 0 162.51    10.3    -1.7     0.0    -0.0
TACIPA32              0 0 154.00     0.0     0.0     0.0    -0.0
TACSPA31              0 0 158.84     2.0     0.0     0.0    -0.0
TADA1D11              0 2 410.32     0.0     0.0  -149.1  -146.0     0.0  -260.1    76.0  -146.0               5416.56 20.0000
TADA1D12              0 2 410.32     0.0     0.0  -149.1  -146.0     0.0  -260.1    76.0  -146.0               2971.61 20.0000
TADA1D13              0 0 400.00     0.0     0.0     0.0    -0.0
TADA2D11              0 0 410.28     0.0     0.0     0.0    -0.0
TADA2D12              0 0 410.28     0.0     0.0     0.0    -0.0
TADA2D1Q Fict. shunt  1 0            0.0     0.0     0.0     0.0
TADA2D13              0 0 400.00     0.0     0.0     0.0    -0.0
TADACM31              0 0 158.84    11.4     1.2     0.0    -0.0
TADACM32              0 0 154.00     0.0     0.0     0.0    -0.0
TADANA11              0 0 404.02     0.0     0.0     0.0    -0.0
TADANA1Q Fict. shunt  1 0            0.0     0.0     0.0     0.0
TADANA12              0 0 404.02     0.0     0.0     0.0    -0.0
TADANA13              0 0 400.00     0.0     0.0     0.0    -0.0
TADANA31              0 0 158.84     0.0     0.0     0.0    -0.0
TADANA32              0 0 158.42     0.0     0.0     0.0    -0.0
TADANA33              0 0 154.00     0.0     0.0     0.0    -0.0
TADAPR31              0 0 161.31     0.0     0.0     0.0    -0.0
TADAPR32              0 0 154.00     0.0     0.0     0.0    -0.0
TADAPZ11              0 0 408.51     0.0     0.0     0.0    -0.0
TADAPZ12              0 0 408.51    42.6    -3.1     0.0    -0.0
TADAPZ13              0 0 408.51     0.0     0.0     0.0    -0.0
TADAPZ31              0 0 158.64     0.0     0.0     0.0    -0.0
TADAPZ32              0 0 160.80    68.1    -5.0     0.0    -0.0
TADAPZ33              0 0 158.64     0.0     0.0     0.0    -0.0
TADAPZ34              0 0 154.00     0.0     0.0     0.0    -0.0
TADATO31              0 0 159.01     3.4     1.0     0.0    -0.0
TADATO32              0 0 154.00     0.0     0.0     0.0    -0.0
TADICI31              0 0 161.47    13.9     2.7     0.0    -0.0
TADICI32              0 0 154.00     0.0     0.0     0.0    -0.0
TADIGO31              0 0 162.29    14.1     2.9     0.0    -0.0
TADIGO32              0 0 154.00     0.0     0.0     0.0    -0.0
TADIGU31              0 0 162.05     3.2     1.3     0.0    -0.0
TADIGU32              0 0 154.00     0.0     0.0     0.0    -0.0
TADILC31              0 0 159.66     9.1     1.5     0.0    -0.0
TADILC32              0 0 154.00     0.0     0.0     0.0    -0.0
TADIYA31              0 0 160.88    40.2     4.2     0.0    -0.0
TADIYA32              0 0 154.00     0.0     0.0     0.0    -0.0
TAFYCI31              0 0 162.10     9.4     1.5     0.0    -0.0
TAFYCI32              0 0 154.00     0.0     0.0     0.0    -0.0
TAFYN331              0 0 162.79     3.5    -1.8     0.0    -0.0
TAFYN332              0 0 154.00     0.0     0.0     0.0    -0.0
TAFYON11              0 0 403.89     0.0     0.0     0.0    -0.0
TAFYON1Q Fict. shunt  1 0            0.0     0.0     0.0     0.0
TAFYON12              0 0 403.89     0.0     0.0     0.0    -0.0
TAFYON1S Fict. shunt  1 0            0.0     0.0     0.0     0.0
TAFYON13              0 0 400.00     0.0     0.0     0.0    -0.0
TAFYON31              0 0 162.17    18.9    -3.7     0.0    -0.0
TAFYON32              0 0 162.17    37.8    -7.3     0.0    -0.0
TAFYON33              0 0 154.00     0.0     0.0     0.0    -0.0
TAFYON34              0 0 154.00     0.0     0.0     0.0    -0.0
TAGEDG31              0 0 154.00     0.0     0.0     0.0    -0.0
TAGEDG32              0 0 161.65     0.2     0.0     0.0    -0.0
TAGOLD31              0 0 162.93     0.0     0.0     0.0    -0.0
TAGOLD32              0 0 154.00     0.0     0.0     0.0    -0.0
TAGRI131              0 0 157.78     0.2     0.0     0.0    -0.0
TAGRI13Q Fict. shunt  1 0            0.0     0.0     0.0     0.0
TAGRI132              0 0 154.00     0.0     0.0     0.0    -0.0
TAGRI211              0 0 400.13     0.0     0.0     0.0    -0.0
TAGRI212              0 0 400.13     0.0     0.0     0.0    -0.0
TAGRI21Q Fict. shunt  1 0            0.0     0.0     0.0     0.0
TAGRI213              0 0 400.00     0.0     0.0     0.0    -0.0
TAGRI231              0 0 158.47     7.3    -0.5     0.0    -0.0
TAGRI232              0 0 158.47    11.7    -0.9     0.0    -0.0
TAGRI233              0 0 154.00     0.0     0.0     0.0    -0.0
TAHLAT31              0 0 159.67     4.2     0.7     0.0    -0.0
TAHLAT32              0 0 154.00     0.0     0.0     0.0    -0.0
TAKALE11              0 0 401.96     0.0     0.0     0.0    -0.0
TAKALE12              0 2 401.96     0.0     0.0  -282.0   226.0  -160.0  -350.2   226.0  -214.1               2540.11 19.3368
TAKALE13              0 0 400.00     0.0     0.0     0.0    -0.0
TAKARA31              0 0 161.78     5.4     1.2     0.0    -0.0
TAKARA32              0 0 154.00     0.0     0.0     0.0    -0.0
TAKBEL31              0 0 155.49    49.0     5.1     0.0    -0.0
TAKBEL32              0 0 154.00     0.0     0.0     0.0    -0.0
TAKBKR31              0 0 161.27     0.0     0.0     0.0    -0.0
TAKBKR32              0 0 154.00     0.0     0.0     0.0    -0.0
TAKBUK31              0 0 161.27    21.4    -2.7     0.0    -0.0
TAKBUK32              0 0 154.00     0.0     0.0     0.0    -0.0
TAKCAK31              0 0 167.52    16.7     3.9     0.0    -0.0
TAKCAK32              0 0 154.00     0.0     0.0     0.0    -0.0
TAKCAN31              0 0 154.00     0.0     0.0     0.0    -0.0
TAKCAN32              0 0 159.88     0.0     0.0     0.0    -0.0
TAKCKO31              0 0 161.42     7.4     0.9     0.0    -0.0
TAKCKO32              0 0 154.00     0.0     0.0     0.0    -0.0
TAKCLR31              0 0 160.73    11.8     1.9     0.0    -0.0
TAKCLR32              0 0 154.00     0.0     0.0     0.0    -0.0
TAKDAC31              0 0 161.42     5.7     1.3     0.0    -0.0
TAKDAC32              0 0 161.42     0.0     0.0     0.0    -0.0
TAKDAM31              0 0 162.08     4.8    -1.4     0.0    -0.0
TAKDAM32              0 0 154.00     0.0     0.0     0.0    -0.0
TAKDAR31              0 0 162.27     0.0     0.0     0.0    -0.0
TAKDAR32              0 0 154.00     0.0     0.0     0.0    -0.0
TAKHSA31              0 0 162.50    47.9     8.6     0.0    -0.0
TAKHSR31              0 0 162.65     0.0     0.0     0.0    -0.0
TAKHSR32              0 0 154.00     0.0     0.0     0.0    -0.0
TAKINC31              0 0 154.00     0.0     0.0     0.0    -0.0
TAKINC32              0 2 162.00     0.0     0.0   -34.0     3.8   -24.5   -48.6    15.6   -29.3               630.523 14.2857
TAKINC33              0 0 162.73     0.0     0.0     0.0    -0.0
TAKINC34              0 0 154.00     0.0     0.0     0.0    -0.0
TAKIST31              0 0 157.35    17.0     2.8     0.0    -0.0
TAKIST32              0 0 157.35    21.0     3.4     0.0    -0.0
TAKKOY31              0 0 163.00     0.0     0.0     0.0    -0.0
TAKKOY32              0 2 163.00     0.0     0.0   -80.0     5.4     0.0  -114.8    38.0   -70.7               1686.12 17.8290
TAKKPH31              0 0 161.98     0.0     0.0     0.0    -0.0
TAKKPH32              0 0 161.98     0.0     0.0     0.0    -0.0
TAKKPR33              0 0 159.02    48.7    -8.7     0.0    -0.0
TAKKPR34              0 0 158.68    24.4    -4.4     0.0    -0.0
TAKKPR3Q Fict. shunt  1 0            0.0     0.0     0.0     0.0
TAKKUS31              0 0 154.00     0.0     0.0     0.0    -0.0
TAKKUS32              0 0 154.00     0.0     0.0     0.0    -0.0
TAKKYG31              0 0 162.81     2.6     4.2     0.0    -0.0
TAKOCK31              0 0 154.00     0.0     0.0     0.0    -0.0
TAKOCK32              0 0 162.26     0.0     0.0     0.0    -0.0
TAKORS31              0 0 161.91    66.0     0.0     0.0    -0.0
TAKORS32              0 0 154.00     0.0     0.0     0.0    -0.0
TAKSA_11              0 0 408.25     0.0     0.0     0.0    -0.0
TAKSA_12              0 0 408.25     0.0     0.0     0.0    -0.0
TAKSA_13              0 0 400.00     0.0     0.0     0.0    -0.0
TAKSAG11              0 0 411.55     0.0     0.0     0.0    -0.0
TAKSAG12              0 2 411.55     0.0     0.0  -114.0     4.4     0.0  -135.0    35.0   -70.0               938.591 20.0000
TAKSAG13              0 0 400.00     0.0     0.0     0.0    -0.0
TAKSAY31              0 0 157.35     0.0     0.0     0.0    -0.0
TAKSAY32              0 2 157.35    44.4    31.3   -96.0    -0.0    -2.0   -99.0     0.0   -20.0               1097.64 20.0000
TAKSEH31              0 0 161.07    11.1    -1.6     0.0    -0.0
TAKSEH32              0 0 154.00     0.0     0.0     0.0    -0.0
TAKSEK31              0 0 162.24     0.2     0.0     0.0    -0.0
TAKSEK32              0 0 154.00     0.0     0.0     0.0    -0.0
TAKSRH31              0 0 162.97     0.0     0.0     0.0    -0.0
TAKSRH32              0 0 154.00     0.0     0.0     0.0    -0.0
TAKSRY31              0 0 161.87    17.6    -2.6     0.0    -0.0
TAKSRY32              0 0 161.87    17.6    -2.6     0.0    -0.0
TAKSUM31              0 0 162.97     3.8     0.5     0.0    -0.0
TAKSUM32              0 0 154.00     0.0     0.0     0.0    -0.0
TAKSUR31              0 0 162.91     0.0     0.0     0.0    -0.0
TAKSUR32              0 0 154.00     0.0     0.0     0.0    -0.0
TAKSUY31              0 2 159.90     0.0     0.0    -1.6    -0.0     0.0   -13.6     5.0    -5.0               152.055 14.2857
TAKSUY32              0 0 154.00     0.0     0.0     0.0    -0.0
TAKYAK31              0 0 159.44    -1.7     0.2     0.0    -0.0
TAKYAK32              0 0 154.00     0.0     0.0     0.0    -0.0
TAKYAZ31              0 0 162.42    28.2    -2.9     0.0    -0.0
TAKYAZ32              0 0 154.00     0.0     0.0     0.0    -0.0
TAKYEL31              0 0 161.83     0.0     0.0     0.0    -0.0
TAKYEL33              0 0 154.00     0.0     0.0     0.0    -0.0
TAKYNG31              0 0 154.00     0.0     0.0     0.0    -0.0
TAKYUR31              0 0 159.97     1.8    -0.3     0.0    -0.0
TAKYUR32              0 0 154.00     0.0     0.0     0.0    -0.0
TALA2J31              0 2 163.48     0.0     0.0   -25.5     9.9     0.0   -35.9     9.9   -18.6               223.827 14.2857
TALA2J32              0 0 154.00     0.0     0.0     0.0    -0.0
TALACA31              0 0 154.00     0.0     0.0     0.0    -0.0
TALACA32              0 0 161.65     4.3    -1.5     0.0    -0.0
TALACT31              0 0 162.80    19.9     2.1     0.0    -0.0
TALACT32              0 0 162.80     0.0     0.0     0.0    -0.0
TALADA31              0 0 157.36     5.2     0.8     0.0    -0.0
TALADA32              0 0 154.00     0.0     0.0     0.0    -0.0
TALAER31              0 0 161.15    12.7     1.3     0.0    -0.0
TALAER32              0 0 154.00     0.0     0.0     0.0    -0.0
TALANY31              0 0 160.94    41.2     4.3     0.0    -0.0
TALANY32              0 0 160.94     0.0     0.0     0.0    -0.0
TALARA31              0 0 160.79    11.7     1.2     0.0    -0.0
TALARA32              0 0 160.79    11.7     1.2     0.0    -0.0
TALASE31              0 0 163.55     0.0     0.0     0.0    -0.0
TALASE32              0 0 163.55     0.0     0.0     0.0    -0.0
TALASH31              0 0 163.10    35.4     9.4     0.0    -0.0
TALASH32              0 0 154.00     0.0     0.0     0.0    -0.0
TALBYH31              0 0 161.64   -10.2    -3.0     0.0    -0.0
TALBYH32              0 0 154.00     0.0     0.0     0.0    -0.0
TALCUK31              0 0 158.85    22.0    -2.3     0.0    -0.0
TALCUK32              0 0 154.00     0.0     0.0     0.0    -0.0
TALESD31              0 0 161.98     0.0     0.0     0.0    -0.0
TALESD32              0 0 161.98     0.0     0.0     0.0    -0.0
TALIAG11              0 0 405.80     0.0     0.0     0.0    -0.0
TALIAG12              0 0 405.80     0.0     0.0     0.0    -0.0
TALIAG13              0 0 400.00     0.0     0.0     0.0    -0.0
TALIAG31              0 0 162.02     0.0     0.0     0.0    -0.0
TALIAG32              0 0 158.91     0.0     0.0     0.0    -0.0
TALIAG33              0 0 154.00     0.0     0.0     0.0    -0.0
TALIAG34              0 0 158.89     0.0     0.0     0.0    -0.0
TALIBR31              0 0 163.29     0.0     0.0     0.0    -0.0
TALIBR32              0 0 154.00     0.0     0.0     0.0    -0.0
TALIBY11              0 0 407.35     0.0     0.0     0.0    -0.0
TALIBY1Q Fict. shunt  1 0            0.0     0.0     0.0     0.0
TALIBY12              0 0 407.35     0.0     0.0     0.0    -0.0
TALIBY13              0 0 400.00     0.0     0.0     0.0    -0.0
TALIBY31              0 0 158.02     0.0     0.0     0.0    -0.0
TALIBY32              0 0 158.54    28.5    -5.5     0.0    -0.0
TALIBY33              0 0 154.00     0.0     0.0     0.0    -0.0
TALIGS31              0 0 162.06    13.5    -3.7     0.0    -0.0
TALIGS32              0 0 162.06    33.8    -9.3     0.0    -0.0
TALKUM31              0 2 162.92     0.0     0.0   -14.0   -17.0   -22.0   -87.3    42.0   -43.0               1382.33 14.2857
TALKUM32              0 0 162.92     0.0     0.0     0.0    -0.0
TALKUM33              0 0 154.00     0.0     0.0     0.0    -0.0
TALMAK31              0 0 158.86     9.5     1.5     0.0    -0.0
TALMAK32              0 0 158.86     0.0     0.0     0.0    -0.0
TALMUS31              0 0 162.64     1.5     0.3     0.0    -0.0
TALMUS32              0 0 154.00     0.0     0.0     0.0    -0.0
TALNBS31              0 0 160.44     0.0     0.0     0.0    -0.0
TALNBS32              0 0 154.00     0.0     0.0     0.0    -0.0
TALOSB31              0 0 162.14    12.7     1.6     0.0    -0.0
TALOSB32              0 0 162.14    12.7     1.6     0.0    -0.0
TALOVA31              0 0 160.36    24.3    -5.4     0.0    -0.0
TALOVA33              0 0 154.00     0.0     0.0     0.0    -0.0
TALPAS11              0 2 408.63     0.0     0.0   -16.0   -68.7     0.0  -110.8    36.4   -68.7               646.453 18.0638
TALPAS12              0 0 408.63     0.0     0.0     0.0    -0.0
TALPAS13              0 0 400.00     0.0     0.0     0.0    -0.0
TALPLN31              0 2 157.79     0.0     0.0   -66.0    25.7   -64.0   -80.0    26.3   -49.6               930.366 14.2857
TALPLN32              0 0 154.00     0.0     0.0     0.0    -0.0
TALPU_31              0 0 161.31    -3.8    -0.4     0.0    -0.0
TALPU_32              0 0 154.00     0.0     0.0     0.0    -0.0
TALS3J31              0 2 163.42     0.0     0.0   -19.1    -0.0    -0.0   -29.5     0.0     0.0               160.036 14.2857
TALS3J32              0 0 154.00     0.0     0.0     0.0    -0.0
TALSAN31              0 0 162.92    25.4    -2.6     0.0    -0.0
TALSAN32              0 0 154.00     0.0     0.0     0.0    -0.0
TALSHJ31              0 2 163.56     0.0     0.0   -25.0    -0.0     0.0   -48.0    14.4   -25.4               332.520 14.2857
TALSHJ32              0 0 154.00     0.0     0.0     0.0    -0.0
TALTAS31              0 0 161.32     3.5     2.3     0.0    -0.0
TALTAS32              0 0 161.32     0.0     0.0     0.0    -0.0
TALTIN31              0 0 158.07    15.1    -1.1     0.0    -0.0
TALTIN32              0 0 158.07    37.9    -2.8     0.0    -0.0
TALTNH11              0 0 400.94     0.0     0.0     0.0    -0.0
TALTNH12              0 0 400.94     0.0     0.0     0.0    -0.0
TALTNH1Q Fict. shunt  1 0            0.0     0.0     0.0     0.0
TALTNH31              0 0 163.84     0.0     0.0     0.0    -0.0
TALTNH32              0 0 154.00     0.0     0.0     0.0    -0.0
TALTNO31              0 0 162.94    12.3    -3.0     0.0    -0.0
TALTNO32              0 0 162.94     0.0     0.0     0.0    -0.0
TALTNT31              0 0 160.54    10.4     3.6     0.0    -0.0
TALTNT32              0 0 154.00     0.0     0.0     0.0    -0.0
TALTOV31              0 0 158.71     1.4    -0.5     0.0    -0.0
TALTOV32              0 0 154.00     0.0     0.0     0.0    -0.0
TAMASR31              0 0 159.75     0.0     0.0     0.0    -0.0
TAMASR32              0 0 154.00     0.0     0.0     0.0    -0.0
TAMAST31              0 0 158.88    24.2    -2.5     0.0    -0.0
TAMAST32              0 0 154.00     0.0     0.0     0.0    -0.0
TAMBAA11              0 0 407.69     0.0     0.0     0.0    -0.0
TAMBAA12              0 2 407.69     0.0     0.0  -282.0    84.0     0.0  -282.0    84.0  -133.8               4360.04 20.0000
TAMBAA31              0 0 157.53     0.0     0.0     0.0    -0.0
TAMBAA32              0 0 157.53     0.0     0.0     0.0    -0.0
TAMBAA33              0 2 157.53     0.0     0.0  -150.0    39.6     0.0  -150.0    39.6   -75.2               1835.94 20.0000
TAMBAA34              0 0 157.53     0.0     0.0     0.0    -0.0
TAMBAB11              0 0 407.70     0.0     0.0     0.0    -0.0
TAMBAB12              0 0 407.70     0.0     0.0     0.0    -0.0
TAMBAB13              0 0 400.00     0.0     0.0     0.0    -0.0
TAMBAB31              0 0 157.53     0.0     0.0     0.0    -0.0
TAMBAB32              0 0 159.61     0.0     0.0     0.0    -0.0
TAMBAB33              0 0 154.00     0.0     0.0     0.0    -0.0
TAMBTM31              0 0 157.52   149.8    10.9     0.0    -0.0
TAMBTM32              0 0 154.00     0.0     0.0     0.0    -0.0
TANAMU31              0 0 163.62    19.0    -2.8     0.0    -0.0
TANAMU32              0 0 154.00     0.0     0.0     0.0    -0.0
TANDIR11              0 0 400.00     0.0     0.0     0.0    -0.0
TANDIR12              0 0 404.45     3.0     0.3     0.0    -0.0
TANDIR13              0 0 400.00     0.0     0.0     0.0    -0.0
TANDIR31              0 0 160.65     0.0     0.0     0.0    -0.0
TANDIR32              0 0 154.00     0.0     0.0     0.0    -0.0
TANDRH31              0 0 160.67     0.0     0.0     0.0    -0.0
TANKSN31              0 0 158.76    52.8     0.0     0.0    -0.0
TANKSN32              0 0 154.00     0.0     0.0     0.0    -0.0
TANTK231              0 0 159.07    42.5     4.4     0.0    -0.0
TANTK232              0 0 154.00     0.0     0.0     0.0    -0.0
TANTSB11              0 0 408.48     0.0     0.0     0.0    -0.0
TANTSB12              0 0 408.48    13.2    -1.7     0.0    -0.0
TANTSB31              0 0 161.80     0.0     0.0     0.0    -0.0
TANTSB32              0 0 154.00     0.0     0.0     0.0    -0.0
TANTSB33              0 0 161.80    21.1    -2.7     0.0    -0.0
TAORDU11              0 0 408.34     0.0     0.0     0.0    -0.0
TAORDU12              0 0 408.34     0.0     0.0     0.0    -0.0
TAORDU13              0 0 400.00     0.0     0.0     0.0    -0.0
TAORDU31              0 0 161.33     4.2     0.6     0.0    -0.0
TAORDU32              0 0 161.33     4.2     0.6     0.0    -0.0
TAORDU33              0 0 154.00     0.0     0.0     0.0    -0.0
TARAC131              0 0 160.35     2.1     0.4     0.0    -0.0
TARAC132              0 0 160.35     0.0     0.0     0.0    -0.0
TARAKL31              0 0 162.26     0.0     0.0     0.0    -0.0
TARAKL32              0 0 154.00     0.0     0.0     0.0    -0.0
TARAPG31              0 0 160.31     0.7    -0.3     0.0    -0.0
TARAPG32              0 0 154.00     0.0     0.0     0.0    -0.0
TARDIC31              0 0 160.16     0.0     0.0     0.0    -0.0
TARDIC32              0 0 154.00     0.0     0.0     0.0    -0.0
TARDNC31              0 0 160.86     1.2     0.1     0.0    -0.0
TARDNC32              0 0 154.00     0.0     0.0     0.0    -0.0
TARDSN31              0 0 160.12    15.1     1.6     0.0    -0.0
TARDSN32              0 0 154.00     0.0     0.0     0.0    -0.0
TARHAV31              0 0 160.29     0.0     0.0     0.0    -0.0
TARHAV32              0 0 154.00     0.0     0.0     0.0    -0.0
TARKOZ31              0 0 147.92     4.5     2.6     0.0    -0.0
TARKOZ32              0 0 154.00     0.0     0.0     0.0    -0.0
TARKUN11              0 2 400.44     0.0     0.0    -4.0     7.8   -32.0   -78.0    25.7   -48.3               647.676 14.2857
TARKUN12              0 0 400.44     0.0     0.0     0.0    -0.0
TARKUN13              0 0 400.00     0.0     0.0     0.0    -0.0
TARPAH31              0 2 159.88     0.0     0.0   -10.0    -6.7    -3.0   -10.8     3.2    -6.7               186.456 14.2857
TARPAH32              0 0 154.00     0.0     0.0     0.0    -0.0
TARRES31              0 0 162.10     0.0     0.0     0.0    -0.0
TARRES32              0 0 154.00     0.0     0.0     0.0    -0.0
TARSIN31              0 0 162.15    26.7     3.4     0.0    -0.0
TARSIN32              0 0 154.00     0.0     0.0     0.0    -0.0
TARSLN31              0 0 158.29    21.4     2.2     0.0    -0.0
TARSLN32              0 0 158.29    21.4     2.2     0.0    -0.0
TARTOC31              0 0 162.50     6.4     1.0     0.0    -0.0
TARTOC32              0 0 154.00     0.0     0.0     0.0    -0.0
TARTV231              0 0 154.00     0.0     0.0     0.0    -0.0
TARTV232              0 0 160.18     6.3    -1.5     0.0    -0.0
TARTVN11              0 0 402.18     0.0     0.0     0.0    -0.0
TARTVN12              0 0 402.18     0.0     0.0     0.0    -0.0
TARTVN13              0 0 400.00     0.0     0.0     0.0    -0.0
TASAS131              0 0 161.08    12.7     4.1     0.0    -0.0
TASAS132              0 0 161.08     0.0     0.0     0.0    -0.0
TASCIM31              0 0 154.00     0.0     0.0     0.0    -0.0
TASCIM32              0 0 161.55    20.7     3.4     0.0    -0.0
TASILC31              0 0 158.42     9.3     0.7     0.0    -0.0
TASILC32              0 0 154.00     0.0     0.0     0.0    -0.0
TASKAC31              0 0 160.26     7.1     0.5     0.0    -0.0
TASKAL31              0 0 160.27     5.1    -2.4     0.0    -0.0
TASKAL32              0 0 154.00     0.0     0.0     0.0    -0.0
TASLCE31              0 0 158.42    12.0     1.8     0.0    -0.0
TASLCE32              0 0 154.00     0.0     0.0     0.0    -0.0
TASLNH31              0 0 162.07     0.0     0.0     0.0    -0.0
TASLNH32              0 0 162.07     0.0     0.0     0.0    -0.0
TASLNR31              0 0 160.66    66.9     4.9     0.0    -0.0
TASLNR32              0 0 154.00     0.0     0.0     0.0    -0.0
TASLNT31              0 0 159.22     0.0     0.0     0.0    -0.0
TASLNT32              0 0 154.00     0.0     0.0     0.0    -0.0
TASYAP31              0 0 160.80     1.2    -0.2     0.0    -0.0
TASYAP32              0 0 154.00     0.0     0.0     0.0    -0.0
TATAER31              0 0 161.31     0.0     0.0     0.0    -0.0
TATAER32              0 0 161.31    62.6    13.0     0.0    -0.0
TATAKA31              0 0 158.86     7.9     1.0     0.0    -0.0
TATAKA32              0 0 154.00     0.0     0.0     0.0    -0.0
TATAKR31              0 0 161.32     0.0     0.0     0.0    -0.0
TATAKR32              0 0 154.00     0.0     0.0     0.0    -0.0
TATAKS11              0 0 401.64     4.7     1.0     0.0    -0.0
TATAKS12              0 0 400.00     0.0     0.0     0.0    -0.0
TATAKS13              0 0 400.00     0.0     0.0     0.0    -0.0
TATASH11              0 0 404.06    13.9    -2.9     0.0    -0.0
TATASH12              0 0 404.06    13.9    -2.9     0.0    -0.0
TATASH1Q Fict. shunt  1 0            0.0     0.0     0.0     0.0
TATATR11              0 0 407.11     0.0     0.0     0.0    -0.0
TATATR12              0 0 407.11     0.0     0.0     0.0    -0.0
TATATR1Q Fict. shunt  1 0            0.0     0.0     0.0     0.0
TATATR13              0 0 400.00     0.0     0.0     0.0    -0.0
TATATR14              0 2 407.11     0.0     0.0  -255.0    91.0  -200.0  -299.3    91.0   -94.0               6802.31 20.0000
TATATR1S Fict. shunt  1 0            0.0     0.0     0.0     0.0
TATATR15              0 0 407.11     0.0     0.0     0.0    -0.0
TATATR16              0 0 400.00     0.0     0.0     0.0    -0.0
TATATR31              0 0 161.94     0.0     0.0     0.0    -0.0
TATATR32              0 0 154.00     0.0     0.0     0.0    -0.0
TATIKR31              0 0 154.00     0.0     0.0     0.0    -0.0
TATIKR32              0 0 154.00     0.0     0.0     0.0    -0.0
TATISA11              0 0 407.43     0.0     0.0     0.0    -0.0
TATISA1Q Fict. shunt  1 0            0.0     0.0     0.0     0.0
TATISA12              0 0 407.43     0.0     0.0     0.0    -0.0
TATISA13              0 0 400.00     0.0     0.0     0.0    -0.0
TATISA31              0 0 157.39    53.6     5.5     0.0    -0.0
TATISA32              0 0 157.93     0.0     0.0     0.0    -0.0
TATLAS11              0 2 400.52     0.0     0.0  -560.0    81.5     0.0  -630.0   180.9  -252.6               3001.67 20.0000
TATLAS12              0 2 400.52    23.0     4.1  -560.0    81.5     0.0  -630.0   184.5  -283.3               3001.67 20.0000
TAVON231              0 0 161.95    12.3     2.9     0.0    -0.0
TAVON232              0 0 161.95     7.7     1.8     0.0    -0.0
TAVRUP31              0 0 159.73     9.8     0.0     0.0    -0.0
TAVRUP32              0 0 159.73     0.0     0.0     0.0    -0.0
TAYANC31              0 0 163.64     5.2    -0.9     0.0    -0.0
TAYANC32              0 0 154.00     0.0     0.0     0.0    -0.0
TAYDIN31              0 0 161.41     0.0     0.0     0.0    -0.0
TAYDIN32              0 0 161.41     0.0     0.0     0.0    -0.0
TAYRNC31              0 0 154.00     0.0     0.0     0.0    -0.0
TAYVAC31              0 0 162.51    -3.2    -0.4     0.0    -0.0
TAYVAC32              0 0 154.00     0.0     0.0     0.0    -0.0
TAYVAH31              0 0 154.00     0.0     0.0     0.0    -0.0
TAYVAH32              0 2 160.75     0.0     0.0    -1.7    -1.6    -1.3    -2.5     0.8    -1.6               738.760 14.2857
TAYVAL31              0 0 162.39    19.7    -2.5     0.0    -0.0
TAYVAL32              0 0 154.00     0.0     0.0     0.0    -0.0
TAZOT_31              0 0 160.22    10.4     1.1     0.0    -0.0
TAZOT_32              0 0 160.20    10.4     1.1     0.0    -0.0
TAZOT_33              0 0 160.23     4.2     0.4     0.0    -0.0
TBABES11              0 0 414.15     0.0     0.0     0.0    -0.0
TBABES12              0 0 414.15     0.0     0.0     0.0    -0.0
TBABES13              0 0 400.00     0.0     0.0     0.0    -0.0
TBABES31              0 0 161.27     8.1    -1.0     0.0    -0.0
TBABES32              0 0 154.00     0.0     0.0     0.0    -0.0
TBADAN61              0 0  69.96     2.8     0.3     0.0    -0.0
TBADAN62              0 0  69.96     1.5     0.2     0.0    -0.0
TBAFAR31              0 0 160.79     0.0     0.0     0.0    -0.0
TBAFAR32              0 0 154.00     0.0     0.0     0.0    -0.0
TBAFRA31              0 0 163.61    23.1     2.9     0.0    -0.0
TBAFRA32              0 0 163.61     0.0     0.0     0.0    -0.0
TBAGAR31              0 0 161.50     0.0     0.0     0.0    -0.0
TBAGAR32              0 0 154.00     0.0     0.0     0.0    -0.0
TBAGCL31              0 0 159.30     0.0     0.0     0.0    -0.0
TBAGCL32              0 0 157.90    85.1    10.8     0.0    -0.0
TBAGI131              0 2 162.94     0.0     0.0    -6.0    -3.8   -23.8   -44.8    14.7   -27.8               764.978 14.2857
TBAGI132              0 0 154.00     0.0     0.0     0.0    -0.0
TBAGI231              0 0 162.92     0.0     0.0     0.0    -0.0
TBAGI232              0 0 154.00     0.0     0.0     0.0    -0.0
TBAGIS11              0 0 401.24     0.0     0.0     0.0    -0.0
TBAGIS12              0 0 401.24     0.0     0.0     0.0    -0.0
TBAGIS1Q Fict. shunt  1 0            0.0     0.0     0.0     0.0
TBAGIS13              0 0 400.00     0.0     0.0     0.0    -0.0
TBAGIS31              0 0 154.00     0.0     0.0     0.0    -0.0
TBAGIS32              0 0 162.93     1.7     0.8     0.0    -0.0
TBAGIS33              0 0 154.00     0.0     0.0     0.0    -0.0
TBAGLA31              0 0 160.15     0.0     0.0     0.0    -0.0
TBAGLA32              0 0 154.00     0.0     0.0     0.0    -0.0
TBAGLM11              0 0 405.96     0.0     0.0     0.0    -0.0
TBAGLM12              0 0 405.96     0.0     0.0     0.0    -0.0
TBAGLM1Q Fict. shunt  1 0            0.0     0.0     0.0     0.0
TBAGLM13              0 0 400.00     0.0     0.0     0.0    -0.0
TBAGLM31              0 0 159.23     5.8     0.7     0.0    -0.0
TBAGLM32              0 0 158.82     0.0     0.0     0.0    -0.0
TBAGLM33              0 0 154.00     0.0     0.0     0.0    -0.0
TBAGRS31              0 0 159.51     0.0     0.0     0.0    -0.0
TBAGRS32              0 0 154.00     0.0     0.0     0.0    -0.0
TBAGSL31              0 0 159.17     8.8     1.4     0.0    -0.0
TBAGSL32              0 0 154.00     0.0     0.0     0.0    -0.0
TBAGYR31              0 0 163.04    20.3    -2.1     0.0    -0.0
TBAGYR32              0 0 163.04    20.3    -2.1     0.0    -0.0
TBAHCE31              0 0 160.30     5.8     0.8     0.0    -0.0
TBAHCE32              0 0 154.00     0.0     0.0     0.0    -0.0
TBAHCS31              0 0 158.98    26.3    -5.1     0.0    -0.0
TBAHCS32              0 0 158.98    26.3    -5.1     0.0    -0.0
TBALAB31              0 0 160.62     0.0     0.0     0.0    -0.0
TBALAB32              0 0 154.00     0.0     0.0     0.0    -0.0
TBALGT31              0 0 158.95    78.1    -8.1     0.0    -0.0
TBALGT32              0 0 154.00     0.0     0.0     0.0    -0.0
TBALK131              0 0 161.97    40.7    -4.2     0.0    -0.0
TBALKS11              0 0 408.19     0.0     0.0     0.0    -0.0
TBALKS12              0 0 408.19     0.0     0.0     0.0    -0.0
TBALKS13              0 0 400.00     0.0     0.0     0.0    -0.0
TBALKS31              0 0 160.69    16.5     2.7     0.0    -0.0
TBALKS32              0 0 154.00     0.0     0.0     0.0    -0.0
TBALKU11              0 0 408.41     3.3     0.2     0.0    -0.0
TBALSE31              0 0 161.54    21.1    -8.3     0.0    -0.0
TBALSE32              0 0 161.54     0.0     0.0     0.0    -0.0
TBANAZ31              0 0 164.27     4.8    -1.7     0.0    -0.0
TBANAZ32              0 0 164.27     0.0     0.0     0.0    -0.0
TBAND211              0 0 405.11     0.0     0.0     0.0    -0.0
TBAND212              0 0 400.00     0.0     0.0     0.0    -0.0
TBAND213              0 0 400.00     0.0     0.0     0.0    -0.0
TBAND231              0 0 161.52    16.1    -4.6     0.0    -0.0
TBAND232              0 0 154.00     0.0     0.0     0.0    -0.0
TBAND331              0 0 161.27     0.0     0.0     0.0    -0.0
TBAND332              0 0 161.27    30.7    -2.2     0.0    -0.0
TBANDR11              0 2 405.11     0.0     0.0  -220.0   102.0     0.0  -306.0   102.0  -192.3               1549.79 20.0000
TBANDR12              0 0 405.11     0.0     0.0     0.0    -0.0
TBANDR13              0 0 400.00     0.0     0.0     0.0    -0.0
TBANDR31              0 0 160.96     0.0     0.0     0.0    -0.0
TBANDR32              0 0 154.00     0.0     0.0     0.0    -0.0
TBARAN31              0 0 162.51     0.0     0.0     0.0    -0.0
TBARAN32              0 0 154.00     0.0     0.0     0.0    -0.0
TBARES31              0 0 161.27     0.0     0.0     0.0    -0.0
TBARLA31              0 0 161.03     2.7     0.4     0.0    -0.0
TBARLA32              0 0 154.00     0.0     0.0     0.0    -0.0
TBARTN31              0 0 161.50    29.5    -3.0     0.0    -0.0
TBARTN32              0 0 154.00     0.0     0.0     0.0    -0.0
TBARTO11              0 0 407.72     0.0     0.0     0.0    -0.0
TBARTO1Q Fict. shunt  1 0            0.0     0.0     0.0     0.0
TBARTO12              0 0 407.72    12.8    -1.3     0.0    -0.0
TBARTO13              0 0 400.00     0.0     0.0     0.0    -0.0
TBARTO31              0 0 154.00     0.0     0.0     0.0    -0.0
TBASKL11              0 0 400.00     0.0     0.0     0.0    -0.0
TBASKL12              0 0 406.78     0.0     0.0     0.0    -0.0
TBASKL1Q Fict. shunt  1 0            0.0     0.0     0.0     0.0
TBASKL13              0 0 400.00     0.0     0.0     0.0    -0.0
TBASKL31              0 0 158.93     9.1     1.3     0.0    -0.0
TBASKL32              0 0 158.93     0.0     0.0     0.0    -0.0
TBASKL33              0 0 154.00     0.0     0.0     0.0    -0.0
TBASTG11              0 0 403.45    64.1     9.4     0.0    -0.0
TBASTG12              0 0 400.00     0.0     0.0     0.0    -0.0
TBASTS31              0 0 160.32    27.8     2.0     0.0    -0.0
TBASTS32              0 0 154.00     0.0     0.0     0.0    -0.0
TBATIC31              0 0 163.06     0.0     0.0     0.0    -0.0
TBATIC32              0 0 163.06     9.2     1.2     0.0    -0.0
TBATM131              0 0 163.81    55.0     4.0     0.0    -0.0
TBATM132              0 0 154.00     0.0     0.0     0.0    -0.0
TBATM211              0 0 412.31     0.0     0.0     0.0    -0.0
TBATM212              0 0 412.31    32.7    -2.4     0.0    -0.0
TBATM213              0 0 400.00     0.0     0.0     0.0    -0.0
TBATM231              0 0 163.88     0.0     0.0     0.0    -0.0
TBATM232              0 0 163.88     0.0     0.0     0.0    -0.0
TBATM233              0 0 154.00     0.0     0.0     0.0    -0.0
TBATMN31              0 2 154.00     0.0     0.0     0.0    -0.0    -0.0    -0.0     0.0     0.0               396.398 14.2857
TBATMN32              0 2 154.00     0.0     0.0     0.0    -0.0    -0.0    -0.0     0.0     0.0               833.873 14.2857
TBATMN33              0 0 161.55     0.0     0.0     0.0    -0.0
TBATMN34              0 0 163.92     4.8     0.5     0.0    -0.0
TBAYAT31              0 0 161.41    -3.3    -0.4     0.0    -0.0
TBAYAT32              0 0 161.41     0.0     0.0     0.0    -0.0
TBAYBU31              0 0 160.35     8.7    -4.2     0.0    -0.0
TBAYBU3Q Fict. shunt  1 0            0.0     0.0     0.0     0.0
TBAYBU32              0 0 154.00     0.0     0.0     0.0    -0.0
TBAYHC31              0 2 162.00     0.0     0.0   -22.0     4.0     0.0   -23.5     7.7   -14.4               284.304 14.2857
TBAYHC32              0 0 154.00     0.0     0.0     0.0    -0.0
TBAYMI31              0 2 159.00     0.0     0.0  -173.4    -2.2     0.0  -247.2    77.0  -144.2               1371.62 20.0000
TBAYMI32              0 2 159.00     0.0     0.0  -226.6    14.1     0.0  -323.0   106.0  -183.0               1916.80 20.0000
TBAYMI33              0 0 158.98     0.0     0.0     0.0    -0.0
TBBABA31              0 0 162.92     0.0     0.0     0.0    -0.0
TBBABA32              0 0 162.92     0.0     0.0     0.0    -0.0
TBBABA33              0 0 162.92     0.0     0.0     0.0    -0.0
TBCEKM31              0 0 159.88    39.9    -8.8     0.0    -0.0
TBCEKM32              0 0 154.00     0.0     0.0     0.0    -0.0
TBDUZU31              0 0 158.99    87.3    -9.0     0.0    -0.0
TBDUZU32              0 0 159.67    87.3    -9.0     0.0    -0.0
TBEKIR11              0 0 406.67     0.0     0.0     0.0    -0.0
TBEKIR12              0 0 406.67     0.0     0.0     0.0    -0.0
TBEKIR13              0 0 400.00     0.0     0.0     0.0    -0.0
TBELEK31              0 0 161.56    26.0     2.7     0.0    -0.0
TBELEK32              0 0 161.56     0.0     0.0     0.0    -0.0
TBELEN31              0 0 158.99     0.0     0.0     0.0    -0.0
TBELEN32              0 0 154.00     0.0     0.0     0.0    -0.0
TBELKS31              0 0 165.78    23.3    -3.4     0.0    -0.0
TBELKS32              0 0 165.78     0.0     0.0     0.0    -0.0
TBERGA31              0 0 162.26    26.7     3.9     0.0    -0.0
TBERGA32              0 0 154.00     0.0     0.0     0.0    -0.0
TBERGR31              0 0 163.50     0.0     0.0     0.0    -0.0
TBERGR32              0 0 154.00     0.0     0.0     0.0    -0.0
TBERKE31              0 0 159.98     0.0     0.0     0.0    -0.0
TBERKE32              0 0 159.98     5.8     1.5     0.0    -0.0
TBERKM31              0 0 159.78     0.0     0.0     0.0    -0.0
TBERKM32              0 0 154.00     0.0     0.0     0.0    -0.0
TBERVR31              0 0 162.36     0.0     0.0     0.0    -0.0
TBERVR32              0 0 154.00     0.0     0.0     0.0    -0.0
TBESEV31              0 0 160.46    63.2    -9.3     0.0    -0.0
TBESEV32              0 0 160.46    31.6    -4.6     0.0    -0.0
TBESKT31              0 0 162.14     0.0     0.0     0.0    -0.0
TBESKT32              0 0 154.00     0.0     0.0     0.0    -0.0
TBESYZ31              0 0 158.38     6.2     0.7     0.0    -0.0
TBESYZ3Q Fict. shunt  1 0            0.0     0.0     0.0     0.0
TBESYZ32              0 0 158.38     0.0     0.0     0.0    -0.0
TBEVLR31              0 0 159.29    23.5     3.0     0.0    -0.0
TBEVLR32              0 0 159.29    47.0     5.9     0.0    -0.0
TBEYHN11              0 2 404.61     0.0     0.0  -157.0    29.7  -120.0  -186.3   145.0  -129.0               3038.67 19.4887
TBEYHN1Q Fict. shunt  1 0            0.0     0.0     0.0     0.0
TBEYHN12              0 0 404.61     0.0     0.0     0.0    -0.0
TBEYHN13              0 0 400.00     0.0     0.0     0.0    -0.0
TBEYKZ11              0 0 406.63    25.1    -4.5     0.0    -0.0
TBEYLI31              0 0 158.58    12.7     2.1     0.0    -0.0
TBEYLI32              0 0 154.00     0.0     0.0     0.0    -0.0
TBEYPA31              0 0 161.27     9.2     1.7     0.0    -0.0
TBEYPA32              0 0 154.00     0.0     0.0     0.0    -0.0
TBEYSE31              0 0 162.34    15.8    -2.8     0.0    -0.0
TBEYSE32              0 0 154.00     0.0     0.0     0.0    -0.0
TBIGA_31              0 0 162.70    19.1    -2.4     0.0    -0.0
TBIGAD31              0 0 160.88    10.7    -1.6     0.0    -0.0
TBIGAD32              0 0 154.00     0.0     0.0     0.0    -0.0
TBIGAR31              0 0 162.43     0.0     0.0     0.0    -0.0
TBILOR31              0 0 159.42    33.9    -2.5     0.0    -0.0
TBILOR32              0 0 154.00     0.0     0.0     0.0    -0.0
TBINGO31              0 0 161.76    19.1    -2.4     0.0    -0.0
TBINGO32              0 0 154.00     0.0     0.0     0.0    -0.0
TBIREH11              0 0 405.38     0.0     0.0     0.0    -0.0
TBIREH12              0 0 405.38     0.0     0.0     0.0    -0.0
TBIREH13              0 0 400.00     0.0     0.0     0.0    -0.0
TBIREH31              0 0 165.95     0.4     0.4     0.0    -0.0
TBIRKA31              0 0 162.41     0.0     0.0     0.0    -0.0
TBIRKA32              0 0 154.00     0.0     0.0     0.0    -0.0
TBISM131              0 0 164.64    13.0     1.3     0.0    -0.0
TBISM132              0 0 164.64    13.0     1.3     0.0    -0.0
TBISM231              0 0 165.46     0.0     0.0     0.0    -0.0
TBISM232              0 0 154.00     0.0     0.0     0.0    -0.0
TBITLI31              0 0 160.09    13.2     1.4     0.0    -0.0
TBITLI32              0 0 154.00     0.0     0.0     0.0    -0.0
TBIZNA31              0 0 162.09     1.2     0.2     0.0    -0.0
TBIZNA32              0 0 154.00     0.0     0.0     0.0    -0.0
TBKARS31              0 0 159.84    93.9     9.7     0.0    -0.0
TBKARS32              0 0 154.00     0.0     0.0     0.0    -0.0
TBKNTJ31              0 0 162.00     0.0     0.0     0.0    -0.0
TBLCEK11              0 0 408.68     0.0     0.0     0.0    -0.0
TBLCEK31              0 0 161.11    10.9     1.1     0.0    -0.0
TBLCEK32              0 0 161.11     0.0     0.0     0.0    -0.0
TBLCEK33              0 0 161.11     0.0     0.0     0.0    -0.0
TBLKER31              0 0 160.73     0.0     0.0     0.0    -0.0
TBLKER32              0 0 154.00     0.0     0.0     0.0    -0.0
TBLKNT31              0 0 158.30     0.0     0.0     0.0    -0.0
TBLKNT3Q Fict. shunt  1 0            0.0     0.0     0.0     0.0
TBLKNT32              0 0 158.30    28.3     3.3     0.0    -0.0
TBLKOS31              0 0 161.54    18.7     1.9     0.0    -0.0
TBLKOS32              0 0 161.54    11.7     1.2     0.0    -0.0
TBND3R31              0 0 154.00     0.0     0.0     0.0    -0.0
TBND3R32              0 0 161.16     0.0     0.0     0.0    -0.0
TBODR231              0 0 161.92    28.1    -2.0     0.0    -0.0
TBODR232              0 0 154.00     0.0     0.0     0.0    -0.0
TBODRU31              0 0 161.85    38.0     3.9     0.0    -0.0
TBODRU32              0 0 154.00     0.0     0.0     0.0    -0.0
TBOGAZ31              0 0 163.81     6.8    -2.6     0.0    -0.0
TBOGAZ32              0 0 154.00     0.0     0.0     0.0    -0.0
TBOLU231              0 0 159.65    16.0    -1.2     0.0    -0.0
TBOLU232              0 0 159.65    16.0    -1.2     0.0    -0.0
TBOLUU31              0 0 159.45     9.9     1.5     0.0    -0.0
TBOLUU32              0 0 154.00     0.0     0.0     0.0    -0.0
TBOLUY31              0 0 160.02     0.0     0.0     0.0    -0.0
TBOLUY32              0 0 160.02    27.1     0.0     0.0    -0.0
TBORCK11              0 0 405.27     0.0     0.0     0.0    -0.0
TBORCK12              0 0 400.49     0.0     0.0     0.0    -0.0
TBORCK1Q Fict. shunt  1 0            0.0     0.0     0.0     0.0
TBORCK13              0 0 400.00     0.0     0.0     0.0    -0.0
TBORCK31              0 0 159.30     1.6     0.2     0.0    -0.0
TBORCK32              0 0 159.30     1.6     0.2     0.0    -0.0
TBORCK33              0 0 154.00     0.0     0.0     0.0    -0.0
TBOREA31              0 0 161.43     0.0     0.0     0.0    -0.0
TBORNO31              0 0 162.95    45.8    -5.8     0.0    -0.0
TBORNO32              0 0 154.00     0.0     0.0     0.0    -0.0
TBORNV11              0 0 406.52     0.0     0.0     0.0    -0.0
TBORNV12              0 0 406.52     0.0     0.0     0.0    -0.0
TBORNV31              0 0 162.98     4.1    -1.5     0.0    -0.0
TBORNV32              0 0 162.97     4.1    -1.5     0.0    -0.0
TBOROS31              0 0 160.89     7.0     1.4     0.0    -0.0
TBOROS32              0 0 154.00     0.0     0.0     0.0    -0.0
TBORTM31              0 0 160.84    12.7     1.3     0.0    -0.0
TBORTM32              0 0 154.00     0.0     0.0     0.0    -0.0
TBOSEN31              0 0 160.68   102.3    10.6     0.0    -0.0
TBOSEN32              0 0 154.00     0.0     0.0     0.0    -0.0
TBOSTA31              0 0 163.09     3.8    -0.5     0.0    -0.0
TBOSTA32              0 0 163.09     3.8    -0.5     0.0    -0.0
TBOTAS31              0 0 160.34    23.9    -2.5     0.0    -0.0
TBOTAS32              0 0 154.00     0.0     0.0     0.0    -0.0
TBOYAB11              0 0 399.78     0.0     0.0     0.0    -0.0
TBOYAB12              0 0 399.78     0.0     0.0     0.0    -0.0
TBOYAB1Q Fict. shunt  1 0            0.0     0.0     0.0     0.0
TBOYAB13              0 0 400.00     0.0     0.0     0.0    -0.0
TBOYAB31              0 0 161.40     8.1    -1.3     0.0    -0.0
TBOYAB32              0 0 154.00     0.0     0.0     0.0    -0.0
TBOZKH31              0 0 162.89     2.6     0.5     0.0    -0.0
TBOZKH32              0 0 154.00     0.0     0.0     0.0    -0.0
TBOZKR31              0 0 160.26     0.0     0.0     0.0    -0.0
TBOZKR32              0 0 154.00     0.0     0.0     0.0    -0.0
TBOZKU31              0 0 161.88     5.8     1.5     0.0    -0.0
TBOZKU32              0 0 154.00     0.0     0.0     0.0    -0.0
TBOZOK11              0 0 410.02     0.0     0.0     0.0    -0.0
TBOZOK12              0 0 410.02     0.0     0.0     0.0    -0.0
TBOZOK1Q Fict. shunt  1 0            0.0     0.0     0.0     0.0
TBOZOK13              0 0 400.00     0.0     0.0     0.0    -0.0
TBOZOK31              0 0 163.68     1.3    -0.4     0.0    -0.0
TBOZOK32              0 0 163.68     1.3    -0.4     0.0    -0.0
TBOZOK33              0 0 154.00     0.0     0.0     0.0    -0.0
TBOZUO31              0 0 160.32    22.1     2.8     0.0    -0.0
TBOZUO32              0 0 160.32    22.1     2.8     0.0    -0.0
TBOZUY31              0 0 160.17    15.6    -2.6     0.0    -0.0
TBOZUY32              0 0 160.17     0.0     0.0     0.0    -0.0
TBOZYA31              0 0 162.49    30.3     3.1     0.0    -0.0
TBOZYA32              0 0 154.00     0.0     0.0     0.0    -0.0
TBRCKY31              0 0 165.54    16.8     2.7     0.0    -0.0
TBRCKY32              0 0 154.00     0.0     0.0     0.0    -0.0
TBRGOS31              0 0 162.25     0.0     0.0     0.0    -0.0
TBRGOS32              0 0 162.25     0.0     0.0     0.0    -0.0
TBRKRR31              0 0 162.74     0.0     0.0     0.0    -0.0
TBRKRR32              0 0 162.74     0.0     0.0     0.0    -0.0
TBSOKE31              0 0 160.26     4.9     0.5     0.0    -0.0
TBUCAA31              0 0 162.55    19.9    -2.5     0.0    -0.0
TBUCAA32              0 0 162.55    17.7    -2.2     0.0    -0.0
TBUCAK31              0 0 161.53    13.3     1.4     0.0    -0.0
TBUCAK32              0 0 154.00     0.0     0.0     0.0    -0.0
TBUHAK31              0 0 162.10     4.3     1.0     0.0    -0.0
TBULNK31              0 0 158.48     4.3     0.3     0.0    -0.0
TBULNK32              0 0 154.00     0.0     0.0     0.0    -0.0
TBURCA31              0 0 154.00     0.0     0.0     0.0    -0.0
TBURCA32              0 0 164.17     0.0     0.0     0.0    -0.0
TBURCA33              0 0 164.17     0.0     0.0     0.0    -0.0
TBURDG11              0 2 405.00     0.0     0.0  -615.0    59.1     0.0  -716.0    90.0  -180.0               3677.01 20.0000
TBURDG1Q Fict. shunt  1 0            0.0     0.0     0.0     0.0
TBURDG12              0 0 405.00     0.0     0.0     0.0    -0.0
TBURDG13              0 0 400.00     0.0     0.0     0.0    -0.0
TBURDG31              0 0 158.89     0.0     0.0     0.0    -0.0
TBURDG32              0 0 158.89     0.5     0.5     0.0    -0.0
TBURDG33              0 0 158.86     0.0     0.0     0.0    -0.0
TBURDG34              0 0 158.86     0.0     0.0     0.0    -0.0
TBURDU31              0 0 159.37    24.1    -4.0     0.0    -0.0
TBURDU3Q Fict. shunt  1 0            0.0     0.0     0.0     0.0
TBURDU32              0 0 154.00     0.0     0.0     0.0    -0.0
TBURGS31              0 0 160.45    41.3     3.0     0.0    -0.0
TBURGS32              0 0 160.45    20.6     1.5     0.0    -0.0
TBURRS31              0 0 160.18     0.0     0.0     0.0    -0.0
TBURRS32              0 0 154.00     0.0     0.0     0.0    -0.0
TBURS331              0 0 160.29    54.3     4.0     0.0    -0.0
TBURS332              0 0 154.00     0.0     0.0     0.0    -0.0
TBURSD11              0 0 403.44     0.0     0.0     0.0    -0.0
TBURSD1Q Fict. shunt  1 0            0.0     0.0     0.0     0.0
TBURSD12              0 0 405.76     0.0     0.0     0.0    -0.0
TBURSD31              0 0 159.60     0.0     0.0     0.0    -0.0
TBURSD32              0 0 159.60     0.0     0.0     0.0    -0.0
TBURSS11              0 0 406.22     0.0     0.0     0.0    -0.0
TBURSS12              0 0 406.22     0.0     0.0     0.0    -0.0
TBURSS13              0 0 400.00     0.0     0.0     0.0    -0.0
TBURSS32              0 0 160.46    46.7    -3.4     0.0    -0.0
TBURSS33              0 0 160.78    43.8    -3.2     0.0    -0.0
TBURSS34              0 0 154.00     0.0     0.0     0.0    -0.0
TBURSS35              0 0 154.00     0.0     0.0     0.0    -0.0
TBUSAN31              0 0 160.23    31.3    -5.1     0.0    -0.0
TBUSAN32              0 0 160.23    15.6    -2.6     0.0    -0.0
TBUYUD31              0 0 162.88     0.0     0.0     0.0    -0.0
TBUYUH31              0 0 162.88     0.9     0.1     0.0    -0.0
TBUYUH32              0 0 154.00     0.0     0.0     0.0    -0.0
TBUYUK31              0 0 156.39    35.5    -4.5     0.0    -0.0
TBUYUK32              0 0 158.71     0.0     0.0     0.0    -0.0
TBZDNY31              0 0 162.59     4.3     0.8     0.0    -0.0
TBZDNY32              0 0 154.00     0.0     0.0     0.0    -0.0
TBZKOY11              0 0 405.84     1.6     0.2     0.0    -0.0
TBZKOY12              0 0 405.84     0.6     0.1     0.0    -0.0
TCAGCA31              0 0 164.35     8.1     1.0     0.0    -0.0
TCAGCA32              0 0 164.35     8.1     1.0     0.0    -0.0
TCAGLH31              0 0 161.48     0.0     0.0     0.0    -0.0
TCAGLH32              0 0 154.00     0.0     0.0     0.0    -0.0
TCAGLY11              0 0 407.60     0.0     0.0     0.0    -0.0
TCAGLY12              0 0 407.60     0.0     0.0     0.0    -0.0
TCAGLY31              0 0 158.61     0.0     0.0     0.0    -0.0
TCAGLY32              0 0 158.09    31.1    -3.2     0.0    -0.0
TCAKRS31              0 0 158.18     0.0     0.0     0.0    -0.0
TCAKRS32              0 0 154.00     0.0     0.0     0.0    -0.0
TCAMBA31              0 2 161.25     0.0     0.0    -2.6     7.2    -2.2   -22.0     7.2   -13.7               269.341 14.2857
TCAMBA32              0 0 154.00     0.0     0.0     0.0    -0.0
TCAMBR31              0 0 160.09     0.0     0.0     0.0    -0.0
TCAMBR32              0 0 154.00     0.0     0.0     0.0    -0.0
TCAMH131              0 0 154.00     0.0     0.0     0.0    -0.0
TCAMH132              0 2 162.87     0.0     0.0   -28.0    10.0     0.0   -28.0    10.0   -19.0               526.644 14.2857
TCAMHA31              0 0 156.71     2.5     1.2     0.0    -0.0
TCAMHA32              0 0 154.00     0.0     0.0     0.0    -0.0
TCAMIS31              0 2 155.00     0.0     0.0  -110.0    31.0     0.0  -126.1    41.6   -73.5               989.087 20.0000
TCAMIS32              0 0 155.00     6.6     1.8     0.0    -0.0
TCAML331              0 0 162.88     0.0     0.0     0.0    -0.0
TCAML332              0 0 162.88     0.0     0.0     0.0    -0.0
TCAMOL31              0 0 163.38     1.5    -1.5     0.0    -0.0
TCAMOL32              0 0 154.00     0.0     0.0     0.0    -0.0
TCAMSE31              0 0 161.20     0.0     0.0     0.0    -0.0
TCAMSE32              0 0 154.00     0.0     0.0     0.0    -0.0
TCAN2T11              0 2 404.46     0.0     0.0  -285.0   108.5     0.0  -340.0   108.5  -204.5               1770.17 20.0000
TCAN2T12              0 0 404.46     0.0     0.0     0.0    -0.0
TCAN2T13              0 0 400.00     0.0     0.0     0.0    -0.0
TCANAK32              0 0 161.36    32.9     0.0     0.0    -0.0
TCANEN31              0 0 159.74     0.0     0.0     0.0    -0.0
TCANEN32              0 0 159.74     0.0     0.0     0.0    -0.0
TCANHZ11              0 0 404.75     0.0     0.0     0.0    -0.0
TCANHZ12              0 0 404.75     0.0     0.0     0.0    -0.0
TCANHZ13              0 0 400.00     0.0     0.0     0.0    -0.0
TCANHZ31              0 0 160.68    26.4     3.3     0.0    -0.0
TCANHZ32              0 0 160.57     0.0     0.0     0.0    -0.0
TCANHZ33              0 0 154.00     0.0     0.0     0.0    -0.0
TCANKC31              0 0 160.94    24.2     5.3     0.0    -0.0
TCANKC32              0 0 154.00     0.0     0.0     0.0    -0.0
TCANKI31              0 0 161.18    25.4     4.2     0.0    -0.0
TCANKI32              0 0 154.00     0.0     0.0     0.0    -0.0
TCANTA31              0 0 160.58     0.0     0.0     0.0    -0.0
TCANTA32              0 0 154.00     0.0     0.0     0.0    -0.0
TCANTS31              0 2 159.90     0.0     0.0  -132.0    52.5     0.0  -160.0    52.5  -105.0               975.594 20.0000
TCANTS32              0 2 159.79     0.0     0.0  -132.0    52.5     0.0  -160.0    52.5  -105.0               975.594 20.0000
TCARSM11              0 0 403.54     0.0     0.0     0.0    -0.0
TCARSM1Q Fict. shunt  1 0            0.0     0.0     0.0     0.0
TCARSM12              0 0 400.00     0.0     0.0     0.0    -0.0
TCARSM31              0 0 162.73    22.8     3.3     0.0    -0.0
TCARSM32              0 0 154.00     0.0     0.0     0.0    -0.0
TCATAL31              0 0 159.62    17.2     4.9     0.0    -0.0
TCATAL32              0 0 159.62     0.0     0.0     0.0    -0.0
TCATLH31              0 0 156.75     0.1     0.0     0.0    -0.0
TCATLH32              0 0 154.00     0.0     0.0     0.0    -0.0
TCATLR31              0 0 160.21     0.0     0.0     0.0    -0.0
TCATLR32              0 0 160.21     0.0     0.0     0.0    -0.0
TCAYCU31              0 0 160.76    14.6    -2.4     0.0    -0.0
TCAYCU32              0 0 160.76    14.6    -2.4     0.0    -0.0
TCAYEL31              0 0 160.22     6.7     1.3     0.0    -0.0
TCAYEL32              0 0 154.00     0.0     0.0     0.0    -0.0
TCAYKH31              0 0 161.04     2.4     0.3     0.0    -0.0
TCAYKH32              0 0 154.00     0.0     0.0     0.0    -0.0
TCAYRH11              0 0 400.00     0.0     0.0     0.0    -0.0
TCAYRH12              0 2 410.00     0.0     0.0  -285.0     8.3     0.0  -300.0    92.0  -185.9               4163.59 20.0000
TCAYRH13              0 0 400.00     0.0     0.0     0.0    -0.0
TCAYRH14              0 0 400.00     0.0     0.0     0.0    -0.0
TCAYRH31              0 0 162.07    19.2    13.6     0.0    -0.0
TCAYRH32              0 0 154.00     0.0     0.0     0.0    -0.0
TCAYSE31              0 0 162.37    13.1     1.5     0.0    -0.0
TCAYSE32              0 0 154.00     0.0     0.0     0.0    -0.0
TCEKER31              0 0 164.66     2.1    -2.0     0.0    -0.0
TCEKER32              0 0 154.00     0.0     0.0     0.0    -0.0
TCENAL11              0 0 406.00    -0.0    -0.0     0.0    -0.0
TCENAL12              0 2 406.00     0.0     0.0 -1268.0   289.9     0.0 -1320.0   432.0  -818.0               7351.01 20.0000
TCENGZ11              0 0 402.53     0.0     0.0     0.0    -0.0
TCENGZ12              0 2 402.53     0.0     0.0  -445.0    97.7     0.0  -610.0   192.1  -376.1               3172.08 20.0000
TCENGZ31              0 0 161.71    16.3     5.5     0.0    -0.0
TCENGZ32              0 0 161.71     0.0     0.0     0.0    -0.0
TCERCK31              0 0 159.07     0.0     0.0     0.0    -0.0
TCERCK32              0 0 154.00     0.0     0.0     0.0    -0.0
TCERIT31              0 0 162.43     0.0     0.0     0.0    -0.0
TCERIT32              0 0 154.00     0.0     0.0     0.0    -0.0
TCERKR31              0 0 159.11     0.0     0.0     0.0    -0.0
TCERKR32              0 0 154.00     0.0     0.0     0.0    -0.0
TCERKZ31              0 0 159.67    90.8    -6.6     0.0    -0.0
TCERKZ32              0 0 154.00     0.0     0.0     0.0    -0.0
TCESME11              0 0 400.00     0.0     0.0     0.0    -0.0
TCESME12              0 0 406.80     0.2     0.0     0.0    -0.0
TCESME13              0 0 400.00     0.0     0.0     0.0    -0.0
TCESME31              0 0 166.79     0.1     0.0     0.0    -0.0
TCESME32              0 0 166.79     0.0     0.0     0.0    -0.0
TCESME33              0 0 166.79     0.0     0.0     0.0    -0.0
TCETIN11              0 2 400.00     0.0     0.0     0.0    -0.0    -0.0    -0.0     0.0     0.0               2737.35 19.7122
TCETIN12              0 0 400.00     0.0     0.0     0.0    -0.0
TCETIN13              0 0 400.00     0.0     0.0     0.0    -0.0
TCEVIZ31              0 2 162.00     0.0     0.0   -15.2     0.7   -23.0   -45.7    15.0   -28.3               657.215 14.2857
TCEVIZ32              0 0 154.00     0.0     0.0     0.0    -0.0
TCEYH231              0 0 158.17     9.7     2.5     0.0    -0.0
TCEYH232              0 0 154.00     0.0     0.0     0.0    -0.0
TCEYHA31              0 0 158.24    15.0     2.2     0.0    -0.0
TCEYHA32              0 0 154.00     0.0     0.0     0.0    -0.0
TCIDEE31              0 0 161.97     3.1     0.9     0.0    -0.0
TCIDEE32              0 0 154.00     0.0     0.0     0.0    -0.0
TCIFTE31              0 0 160.53    14.0     3.7     0.0    -0.0
TCIFTE32              0 0 154.00     0.0     0.0     0.0    -0.0
TCIGDE31              0 0 163.53    41.3    -7.4     0.0    -0.0
TCIGDE32              0 0 158.83     0.0     0.0     0.0    -0.0
TCIHAD31              0 0 158.83    19.0     3.9     0.0    -0.0
TCIHAD32              0 0 154.00     0.0     0.0     0.0    -0.0
TCIHAN31              0 0 161.29    16.2     2.7     0.0    -0.0
TCIHAN32              0 0 154.00     0.0     0.0     0.0    -0.0
TCILDI31              0 0 161.50     1.4     0.0     0.0    -0.0
TCIMKO31              0 0 163.33    11.2     1.8     0.0    -0.0
TCIMKO32              0 0 163.33     5.6     0.9     0.0    -0.0
TCIMPO31              0 0 160.61     5.6     0.6     0.0    -0.0
TCIMPO32              0 0 154.00     0.0     0.0     0.0    -0.0
TCIMSA31              0 0 155.93    18.1     3.7     0.0    -0.0
TCINEH31              0 0 162.14     0.0     0.0     0.0    -0.0
TCINEH32              0 0 162.14     0.0     0.0     0.0    -0.0
TCINEY31              0 0 161.95    -3.1    -0.9     0.0    -0.0
TCINEY32              0 0 154.00     0.0     0.0     0.0    -0.0
TCINKU31              0 0 161.30     9.4    -5.8     0.0    -0.0
TCINKU32              0 0 154.00     0.0     0.0     0.0    -0.0
TCIRAK31              0 2 161.68     0.0     0.0   -10.0     7.8     0.0   -24.5     7.8   -14.4               337.121 14.2857
TCIRAK32              0 0 154.00     0.0     0.0     0.0    -0.0
TCIRCI31              0 0 163.49     7.5     1.7     0.0    -0.0
TCIRCI32              0 0 154.00     0.0     0.0     0.0    -0.0
TCIVRI31              0 0 162.38     8.3     0.6     0.0    -0.0
TCIVRI32              0 0 154.00     0.0     0.0     0.0    -0.0
TCIZRE11              0 0 410.31     0.0     0.0     0.0    -0.0
TCIZRE12              0 0 410.31     0.0     0.0     0.0    -0.0
TCIZRE1Q Fict. shunt  1 0            0.0     0.0     0.0     0.0
TCIZRE13              0 0 400.00     0.0     0.0     0.0    -0.0
TCIZRE31              0 0 164.25    12.5     1.6     0.0    -0.0
TCIZRE32              0 0 164.25    12.5     1.6     0.0    -0.0
TCIZRE33              0 0 154.00     0.0     0.0     0.0    -0.0
TCKOYO31              0 0 159.59    48.1     3.5     0.0    -0.0
TCKOYO32              0 0 159.59    48.1     3.5     0.0    -0.0
TCOLAK31              0 2 158.49    46.9     9.1  -147.0   -79.7     0.0  -190.0    30.0   -80.0               3811.84 20.0000
TCOLAK32              0 0 157.20    39.5     7.7     0.0    -0.0
TCOLLO31              0 0 154.00     0.0     0.0     0.0    -0.0
TCOLLO32              0 0 160.85     0.1    -0.1     0.0    -0.0
TCOLOV31              0 0 161.45     6.9    -1.5     0.0    -0.0
TCOLOV32              0 0 154.00     0.0     0.0     0.0    -0.0
TCOLUK11              0 0 402.70     0.0     0.0     0.0    -0.0
TCOLUK31              0 0 158.45     0.0     0.0     0.0    -0.0
TCORL211              0 0 408.44     0.0     0.0     0.0    -0.0
TCORL21Q Fict. shunt  1 0            0.0     0.0     0.0     0.0
TCORL212              0 0 408.44     0.0     0.0     0.0    -0.0
TCORL21S Fict. shunt  1 0            0.0     0.0     0.0     0.0
TCORL213              0 0 400.00     0.0     0.0     0.0    -0.0
TCORL231              0 0 160.35    21.4    -4.4     0.0    -0.0
TCORL232              0 0 160.63     0.0     0.0     0.0    -0.0
TCORL233              0 0 154.00     0.0     0.0     0.0    -0.0
TCORLU31              0 0 160.51    74.5     0.0     0.0    -0.0
TCORLU32              0 0 159.70     0.0     0.0     0.0    -0.0
TCORM131              0 0 161.09    27.1    -4.4     0.0    -0.0
TCORM132              0 0 154.00     0.0     0.0     0.0    -0.0
TCORUM31              0 0 160.82    17.8    -3.5     0.0    -0.0
TCORUM32              0 0 154.00     0.0     0.0     0.0    -0.0
TCRKOY31              0 0 159.66    36.3     5.9     0.0    -0.0
TCRKOY32              0 0 159.66     0.0     0.0     0.0    -0.0
TCTLBR31              0 0 160.28     0.0     0.0     0.0    -0.0
TCTLBR32              0 0 154.00     0.0     0.0     0.0    -0.0
TCUMHU31              0 0 160.28    12.4   -10.6     0.0    -0.0
TCUMHU32              0 0 160.28     8.2    -7.0     0.0    -0.0
TCUMRA31              0 0 161.33    27.7     7.3     0.0    -0.0
TCUMRA32              0 0 154.00     0.0     0.0     0.0    -0.0
...